!-Generator IDFEditor 1.51
!-Option SortedOrder

!-NOTE: All comments with '!-' are ignored by the IDFEditor and are generated automatically.
!-      Use '!' comments if they need to be retained when using the IDFEditor.


!-   ===========  ALL OBJECTS IN CLASS: VERSION ===========

Version,
    22.1;                    !- Version Identifier


!-   ===========  ALL OBJECTS IN CLASS: SIMULATIONCONTROL ===========

SimulationControl,
    No,                      !- Do Zone Sizing Calculation
    No,                      !- Do System Sizing Calculation
    No,                      !- Do Plant Sizing Calculation
    No,                      !- Run Simulation for Sizing Periods
    Yes,                     !- Run Simulation for Weather File Run Periods
    No,                      !- Do HVAC Sizing Simulation for Sizing Periods
    1;                       !- Maximum Number of HVAC Sizing Simulation Passes


!-   ===========  ALL OBJECTS IN CLASS: BUILDING ===========

Building,
    Building 1,              !- Name
    ,                        !- North Axis {deg}
    ,                        !- Terrain
    ,                        !- Loads Convergence Tolerance Value {W}
    0.0000001,               !- Temperature Convergence Tolerance Value {deltaC}
    ,                        !- Solar Distribution
    100,                     !- Maximum Number of Warmup Days
    1;                       !- Minimum Number of Warmup Days


!-   ===========  ALL OBJECTS IN CLASS: SHADOWCALCULATION ===========

ShadowCalculation,
    PolygonClipping,         !- Shading Calculation Method
    Periodic,                !- Shading Calculation Update Frequency Method
    20,                      !- Shading Calculation Update Frequency
    15000,                   !- Maximum Figures in Shadow Overlap Calculations
    SutherlandHodgman;       !- Polygon Clipping Algorithm


!-   ===========  ALL OBJECTS IN CLASS: HEATBALANCEALGORITHM ===========

HeatBalanceAlgorithm,
    ConductionTransferFunction,  !- Algorithm
    200;                     !- Surface Temperature Upper Limit {C}


!-   ===========  ALL OBJECTS IN CLASS: ZONEAIRHEATBALANCEALGORITHM ===========

ZoneAirHeatBalanceAlgorithm,
    ThirdOrderBackwardDifference;  !- Algorithm


!-   ===========  ALL OBJECTS IN CLASS: ZONEAIRMASSFLOWCONSERVATION ===========

ZoneAirMassFlowConservation,
    None,                    !- Adjust Zone Mixing and Return For Air Mass Flow Balance
    None,                    !- Infiltration Balancing Method
    AllZones;                !- Infiltration Balancing Zones


!-   ===========  ALL OBJECTS IN CLASS: TIMESTEP ===========

Timestep,
    60;                      !- Number of Timesteps per Hour


!-   ===========  ALL OBJECTS IN CLASS: CONVERGENCELIMITS ===========

ConvergenceLimits,
    1;                       !- Minimum System Timestep {minutes}


!-   ===========  ALL OBJECTS IN CLASS: SITE:LOCATION ===========

Site:Location,
    Temixco,                 !- Name
    18.51,                   !- Latitude {deg}
    -99.14,                  !- Longitude {deg}
    -6,                      !- Time Zone {hr}
    1219;                    !- Elevation {m}


!-   ===========  ALL OBJECTS IN CLASS: RUNPERIOD ===========

RunPeriod,
    Run Period 1,            !- Name
    1,                       !- Begin Month
    1,                       !- Begin Day of Month
    2018,                    !- Begin Year
    1,                       !- End Month
    31,                      !- End Day of Month
    2018,                    !- End Year
    Monday,                  !- Day of Week for Start Day
    No,                      !- Use Weather File Holidays and Special Days
    No,                      !- Use Weather File Daylight Saving Period
    No,                      !- Apply Weekend Holiday Rule
    Yes,                     !- Use Weather File Rain Indicators
    Yes,                     !- Use Weather File Snow Indicators
    ,                        !- Treat Weather as Actual
    Hour1;                   !- First Hour Interpolation Starting Values


!-   ===========  ALL OBJECTS IN CLASS: SITE:HEIGHTVARIATION ===========

Site:HeightVariation,
    0,                       !- Wind Speed Profile Exponent
    0.000000000000001,       !- Wind Speed Profile Boundary Layer Thickness {m}
    0;                       !- Air Temperature Gradient Coefficient {K/m}


!-   ===========  ALL OBJECTS IN CLASS: SCHEDULETYPELIMITS ===========

ScheduleTypeLimits,
    Fraccion,                !- Name
    ,                        !- Lower Limit Value
    ,                        !- Upper Limit Value
    Continuous,              !- Numeric Type
    Dimensionless;           !- Unit Type

ScheduleTypeLimits,
    Percent,                 !- Name
    0,                       !- Lower Limit Value
    100,                     !- Upper Limit Value
    Continuous,              !- Numeric Type
    percent;                 !- Unit Type

ScheduleTypeLimits,
    Temperature,             !- Name
    0,                       !- Lower Limit Value
    100,                     !- Upper Limit Value
    Continuous,              !- Numeric Type
    temperature;             !- Unit Type

ScheduleTypeLimits,
    Integer,                 !- Name
    0,                       !- Lower Limit Value
    1000,                    !- Upper Limit Value
    Discrete;                !- Numeric Type

ScheduleTypeLimits,
    OnOff,                   !- Name
    0,                       !- Lower Limit Value
    1,                       !- Upper Limit Value
    Discrete,                !- Numeric Type
    availability;            !- Unit Type


!-   ===========  ALL OBJECTS IN CLASS: SCHEDULE:COMPACT ===========

Schedule:Compact,
    PBCafe1_tsp,             !- Name
    Temperature,             !- Schedule Type Limits Name
    Through: 12/31,          !- Field 1
    For: AllDays,            !- Field 2
    Until: 24:00,            !- Field 3
    23;                      !- Field 4

Schedule:Compact,
    PBCafe1_hsp,             !- Name
    Percent,                 !- Schedule Type Limits Name
    Through: 12/31,          !- Field 1
    For: AllDays,            !- Field 2
    Until: 24:00,            !- Field 3
    23;                      !- Field 4

Schedule:Compact,
    EvapZones_type,          !- Name
    Integer,                 !- Schedule Type Limits Name
    Through: 12/31,          !- Field 1
    For: AllDays,            !- Field 2
    Until: 24:00,            !- Field 3
    4;                       !- Field 4

Schedule:Compact,
    PBCafe2_tsp,             !- Name
    Temperature,             !- Schedule Type Limits Name
    Through: 12/31,          !- Field 1
    For: AllDays,            !- Field 2
    Until: 24:00,            !- Field 3
    23;                      !- Field 4

Schedule:Compact,
    PBCafe2_hsp,             !- Name
    Percent,                 !- Schedule Type Limits Name
    Through: 12/31,          !- Field 1
    For: AllDays,            !- Field 2
    Until: 24:00,            !- Field 3
    23;                      !- Field 4

Schedule:Compact,
    BldgAvailable_Z1x,       !- Name
    OnOff,                   !- Schedule Type Limits Name
    Through: 2/28,           !- Field 1
    For: AllDays,            !- Field 2
    Until: 24:00,            !- Field 3
    0,                       !- Field 4
    Through: 12/31,          !- Field 5
    For: Monday,             !- Field 6
    Until: 13:50,            !- Field 7
    0,                       !- Field 8
    Until: 14:00,            !- Field 9
    0,                       !- Field 10
    Until: 14:10,            !- Field 11
    0,                       !- Field 12
    Until: 14:20,            !- Field 13
    0,                       !- Field 14
    Until: 14:30,            !- Field 15
    0,                       !- Field 16
    Until: 14:40,            !- Field 17
    0,                       !- Field 18
    Until: 14:50,            !- Field 19
    0,                       !- Field 20
    Until: 15:00,            !- Field 21
    0,                       !- Field 22
    Until: 15:10,            !- Field 23
    0,                       !- Field 24
    Until: 15:20,            !- Field 25
    0,                       !- Field 26
    Until: 24:00,            !- Field 27
    0,                       !- Field 28
    For: AllOtherDays,       !- Field 29
    Until: 13:00,            !- Field 30
    0,                       !- Field 31
    Until: 13:10,            !- Field 32
    1,                       !- Field 33
    Until: 13:20,            !- Field 34
    1,                       !- Field 35
    Until: 13:30,            !- Field 36
    1,                       !- Field 37
    Until: 13:40,            !- Field 38
    0,                       !- Field 39
    Until: 13:50,            !- Field 40
    0,                       !- Field 41
    Until: 14:00,            !- Field 42
    0,                       !- Field 43
    Until: 14:10,            !- Field 44
    1,                       !- Field 45
    Until: 14:20,            !- Field 46
    1,                       !- Field 47
    Until: 14:30,            !- Field 48
    1,                       !- Field 49
    Until: 14:40,            !- Field 50
    0,                       !- Field 51
    Until: 14:50,            !- Field 52
    0,                       !- Field 53
    Until: 15:00,            !- Field 54
    1,                       !- Field 55
    Until: 15:10,            !- Field 56
    1,                       !- Field 57
    Until: 15:20,            !- Field 58
    1,                       !- Field 59
    Until: 15:30,            !- Field 60
    1,                       !- Field 61
    Until: 15:40,            !- Field 62
    0,                       !- Field 63
    Until: 15:50,            !- Field 64
    0,                       !- Field 65
    Until: 16:00,            !- Field 66
    0,                       !- Field 67
    Until: 24:00,            !- Field 68
    0;                       !- Field 69

Schedule:Compact,
    BldgAvailable_Z2x,       !- Name
    OnOff,                   !- Schedule Type Limits Name
    Through: 2/28,           !- Field 1
    For: AllDays,            !- Field 2
    Until: 24:00,            !- Field 3
    0,                       !- Field 4
    Through: 12/31,          !- Field 5
    For: Monday,             !- Field 6
    Until: 13:50,            !- Field 7
    0,                       !- Field 8
    Until: 14:00,            !- Field 9
    0,                       !- Field 10
    Until: 14:10,            !- Field 11
    0,                       !- Field 12
    Until: 14:20,            !- Field 13
    0,                       !- Field 14
    Until: 14:30,            !- Field 15
    0,                       !- Field 16
    Until: 14:40,            !- Field 17
    0,                       !- Field 18
    Until: 14:50,            !- Field 19
    0,                       !- Field 20
    Until: 15:00,            !- Field 21
    0,                       !- Field 22
    Until: 15:10,            !- Field 23
    0,                       !- Field 24
    Until: 15:20,            !- Field 25
    0,                       !- Field 26
    Until: 24:00,            !- Field 27
    0,                       !- Field 28
    For: AllOtherDays,       !- Field 29
    Until: 13:00,            !- Field 30
    0,                       !- Field 31
    Until: 13:10,            !- Field 32
    0,                       !- Field 33
    Until: 13:20,            !- Field 34
    0,                       !- Field 35
    Until: 13:30,            !- Field 36
    0,                       !- Field 37
    Until: 13:40,            !- Field 38
    1,                       !- Field 39
    Until: 13:50,            !- Field 40
    1,                       !- Field 41
    Until: 14:00,            !- Field 42
    1,                       !- Field 43
    Until: 14:10,            !- Field 44
    0,                       !- Field 45
    Until: 14:20,            !- Field 46
    0,                       !- Field 47
    Until: 14:30,            !- Field 48
    0,                       !- Field 49
    Until: 14:40,            !- Field 50
    1,                       !- Field 51
    Until: 14:50,            !- Field 52
    1,                       !- Field 53
    Until: 15:00,            !- Field 54
    1,                       !- Field 55
    Until: 15:10,            !- Field 56
    1,                       !- Field 57
    Until: 15:20,            !- Field 58
    1,                       !- Field 59
    Until: 15:30,            !- Field 60
    1,                       !- Field 61
    Until: 15:40,            !- Field 62
    0,                       !- Field 63
    Until: 15:50,            !- Field 64
    0,                       !- Field 65
    Until: 16:00,            !- Field 66
    0,                       !- Field 67
    Until: 24:00,            !- Field 68
    0;                       !- Field 69

Schedule:Compact,
    BldgAvailable_Z1,        !- Name
    OnOff,                   !- Schedule Type Limits Name
    Through: 01/15,          !- Field 1
    For: AllDays,            !- Field 2
    Until: 24:00,            !- Field 3
    0,                       !- Field 4
    Through: 01/23,          !- Field 5
    For: AllDays,            !- Field 6
    Until: 24:00,            !- Field 7
    1,                       !- Field 8
    Through: 12/31,          !- Field 9
    For: AllDays,            !- Field 10
    Until: 24:00,            !- Field 11
    0;                       !- Field 12

Schedule:Compact,
    BldgAvailable_Z2,        !- Name
    OnOff,                   !- Schedule Type Limits Name
    Through: 01/14,          !- Field 1
    For: AllDays,            !- Field 2
    Until: 24:00,            !- Field 3
    1,                       !- Field 4
    Through: 01/23,          !- Field 5
    For: AllDays,            !- Field 6
    Until: 24:00,            !- Field 7
    0,                       !- Field 8
    Through: 12/31,          !- Field 9
    For: AllDays,            !- Field 10
    Until: 24:00,            !- Field 11
    1;                       !- Field 12


!-   ===========  ALL OBJECTS IN CLASS: MATERIAL:NOMASS ===========

Material:NoMass,
    CP02 CARPET PAD,         !- Name
    VerySmooth,              !- Roughness
    100000000000000,         !- Thermal Resistance {m2-K/W}
    0.000000000000001,       !- Thermal Absorptance
    0.000000000000001,       !- Solar Absorptance
    0;                       !- Visible Absorptance


!-   ===========  ALL OBJECTS IN CLASS: WINDOWMATERIAL:SIMPLEGLAZINGSYSTEM ===========

WindowMaterial:SimpleGlazingSystem,
    vidrio,                  !- Name
    1E-16,                   !- U-Factor {W/m2-K}
    1E-37,                   !- Solar Heat Gain Coefficient
    0.00000000000001;        !- Visible Transmittance


!-   ===========  ALL OBJECTS IN CLASS: WINDOWMATERIAL:GLAZING ===========

WindowMaterial:Glazing,
    Theoretical Glass [207], !- Name
    SpectralAverage,         !- Optical Data Type
    ,                        !- Window Glass Spectral Data Set Name
    3E-22,                   !- Thickness {m}
    0,                       !- Solar Transmittance at Normal Incidence
    0,                       !- Front Side Solar Reflectance at Normal Incidence
    0,                       !- Back Side Solar Reflectance at Normal Incidence
    0,                       !- Visible Transmittance at Normal Incidence
    0,                       !- Front Side Visible Reflectance at Normal Incidence
    0,                       !- Back Side Visible Reflectance at Normal Incidence
    0,                       !- Infrared Transmittance at Normal Incidence
    1E-26,                   !- Front Side Infrared Hemispherical Emissivity
    1E-23,                   !- Back Side Infrared Hemispherical Emissivity
    1E-27,                   !- Conductivity {W/m-K}
    1E-30,                   !- Dirt Correction Factor for Solar and Visible Transmittance
    No;                      !- Solar Diffusing

WindowMaterial:Glazing,
    Theoretical Glass indoor,!- Name
    SpectralAverage,         !- Optical Data Type
    ,                        !- Window Glass Spectral Data Set Name
    3E-22,                   !- Thickness {m}
    0,                       !- Solar Transmittance at Normal Incidence
    0,                       !- Front Side Solar Reflectance at Normal Incidence
    0,                       !- Back Side Solar Reflectance at Normal Incidence
    1,                       !- Visible Transmittance at Normal Incidence
    0,                       !- Front Side Visible Reflectance at Normal Incidence
    0,                       !- Back Side Visible Reflectance at Normal Incidence
    0,                       !- Infrared Transmittance at Normal Incidence
    1E-26,                   !- Front Side Infrared Hemispherical Emissivity
    1E-23,                   !- Back Side Infrared Hemispherical Emissivity
    1E-27,                   !- Conductivity {W/m-K}
    1,                       !- Dirt Correction Factor for Solar and Visible Transmittance
    No;                      !- Solar Diffusing


!-   ===========  ALL OBJECTS IN CLASS: CONSTRUCTION ===========

Construction,
    No mass,                 !- Name
    CP02 CARPET PAD;         !- Outside Layer

Construction,
    ASHRAE 189.1-2009 ExtWindow ClimateZone 4-5,  !- Name
    Theoretical Glass [207]; !- Outside Layer

Construction,
    Window in,               !- Name
    Theoretical Glass indoor;!- Outside Layer


!-   ===========  ALL OBJECTS IN CLASS: GLOBALGEOMETRYRULES ===========

GlobalGeometryRules,
    UpperLeftCorner,         !- Starting Vertex Position
    Counterclockwise,        !- Vertex Entry Direction
    Relative,                !- Coordinate System
    Relative,                !- Daylighting Reference Point Coordinate System
    Relative;                !- Rectangular Surface Coordinate System


!-   ===========  ALL OBJECTS IN CLASS: ZONE ===========

Zone,
    NCafeteria,              !- Name
    ,                        !- Direction of Relative North {deg}
    0,                       !- X Origin {m}
    9.83,                    !- Y Origin {m}
    0;                       !- Z Origin {m}


!-   ===========  ALL OBJECTS IN CLASS: BUILDINGSURFACE:DETAILED ===========

BuildingSurface:Detailed,
    NCafeteria-DivisionCafeteria,  !- Name
    Wall,                    !- Surface Type
    No mass,                 !- Construction Name
    NCafeteria,              !- Zone Name
    ,                        !- Space Name
    Adiabatic,               !- Outside Boundary Condition
    ,                        !- Outside Boundary Condition Object
    NoSun,                   !- Sun Exposure
    NoWind,                  !- Wind Exposure
    ,                        !- View Factor to Ground
    ,                        !- Number of Vertices
    9.25,                    !- Vertex 1 X-coordinate {m}
    0,                       !- Vertex 1 Y-coordinate {m}
    3.5,                     !- Vertex 1 Z-coordinate {m}
    9.25,                    !- Vertex 2 X-coordinate {m}
    0,                       !- Vertex 2 Y-coordinate {m}
    0,                       !- Vertex 2 Z-coordinate {m}
    0,                       !- Vertex 3 X-coordinate {m}
    0,                       !- Vertex 3 Y-coordinate {m}
    0,                       !- Vertex 3 Z-coordinate {m}
    0,                       !- Vertex 4 X-coordinate {m}
    0,                       !- Vertex 4 Y-coordinate {m}
    3.5;                     !- Vertex 4 Z-coordinate {m}

BuildingSurface:Detailed,
    NCafeteria-DivisionCafeteria_Oeste,  !- Name
    Wall,                    !- Surface Type
    No mass,                 !- Construction Name
    NCafeteria,              !- Zone Name
    ,                        !- Space Name
    Adiabatic,               !- Outside Boundary Condition
    ,                        !- Outside Boundary Condition Object
    NoSun,                   !- Sun Exposure
    NoWind,                  !- Wind Exposure
    ,                        !- View Factor to Ground
    ,                        !- Number of Vertices
    9.25,                    !- Vertex 1 X-coordinate {m}
    4.17,                    !- Vertex 1 Y-coordinate {m}
    3.5,                     !- Vertex 1 Z-coordinate {m}
    9.25,                    !- Vertex 2 X-coordinate {m}
    4.17,                    !- Vertex 2 Y-coordinate {m}
    0,                       !- Vertex 2 Z-coordinate {m}
    9.25,                    !- Vertex 3 X-coordinate {m}
    0,                       !- Vertex 3 Y-coordinate {m}
    0,                       !- Vertex 3 Z-coordinate {m}
    9.25,                    !- Vertex 4 X-coordinate {m}
    0,                       !- Vertex 4 Y-coordinate {m}
    3.5;                     !- Vertex 4 Z-coordinate {m}

BuildingSurface:Detailed,
    NCafeteria-MuroEvap,     !- Name
    Wall,                    !- Surface Type
    No mass,                 !- Construction Name
    NCafeteria,              !- Zone Name
    ,                        !- Space Name
    Outdoors,                !- Outside Boundary Condition
    ,                        !- Outside Boundary Condition Object
    NoSun,                   !- Sun Exposure
    NoWind,                  !- Wind Exposure
    ,                        !- View Factor to Ground
    ,                        !- Number of Vertices
    11.95,                   !- Vertex 1 X-coordinate {m}
    -9.83,                   !- Vertex 1 Y-coordinate {m}
    3.5,                     !- Vertex 1 Z-coordinate {m}
    11.95,                   !- Vertex 2 X-coordinate {m}
    -9.83,                   !- Vertex 2 Y-coordinate {m}
    0,                       !- Vertex 2 Z-coordinate {m}
    11.95,                   !- Vertex 3 X-coordinate {m}
    4.17,                    !- Vertex 3 Y-coordinate {m}
    0,                       !- Vertex 3 Z-coordinate {m}
    11.95,                   !- Vertex 4 X-coordinate {m}
    4.17,                    !- Vertex 4 Y-coordinate {m}
    3.5;                     !- Vertex 4 Z-coordinate {m}

BuildingSurface:Detailed,
    NCafeteria-MuroOesteEvap,!- Name
    Wall,                    !- Surface Type
    No mass,                 !- Construction Name
    NCafeteria,              !- Zone Name
    ,                        !- Space Name
    Outdoors,                !- Outside Boundary Condition
    ,                        !- Outside Boundary Condition Object
    NoSun,                   !- Sun Exposure
    NoWind,                  !- Wind Exposure
    ,                        !- View Factor to Ground
    ,                        !- Number of Vertices
    0,                       !- Vertex 1 X-coordinate {m}
    0,                       !- Vertex 1 Y-coordinate {m}
    3.5,                     !- Vertex 1 Z-coordinate {m}
    0,                       !- Vertex 2 X-coordinate {m}
    0,                       !- Vertex 2 Y-coordinate {m}
    0,                       !- Vertex 2 Z-coordinate {m}
    0,                       !- Vertex 3 X-coordinate {m}
    -9.83,                   !- Vertex 3 Y-coordinate {m}
    0,                       !- Vertex 3 Z-coordinate {m}
    0,                       !- Vertex 4 X-coordinate {m}
    -9.83,                   !- Vertex 4 Y-coordinate {m}
    3.5;                     !- Vertex 4 Z-coordinate {m}

BuildingSurface:Detailed,
    NCafeteria-MuroSur 1,    !- Name
    Wall,                    !- Surface Type
    No mass,                 !- Construction Name
    NCafeteria,              !- Zone Name
    ,                        !- Space Name
    Outdoors,                !- Outside Boundary Condition
    ,                        !- Outside Boundary Condition Object
    NoSun,                   !- Sun Exposure
    NoWind,                  !- Wind Exposure
    ,                        !- View Factor to Ground
    ,                        !- Number of Vertices
    0,                       !- Vertex 1 X-coordinate {m}
    -9.83,                   !- Vertex 1 Y-coordinate {m}
    3.5,                     !- Vertex 1 Z-coordinate {m}
    0,                       !- Vertex 2 X-coordinate {m}
    -9.83,                   !- Vertex 2 Y-coordinate {m}
    0,                       !- Vertex 2 Z-coordinate {m}
    11.95,                   !- Vertex 3 X-coordinate {m}
    -9.83,                   !- Vertex 3 Y-coordinate {m}
    0,                       !- Vertex 3 Z-coordinate {m}
    11.95,                   !- Vertex 4 X-coordinate {m}
    -9.83,                   !- Vertex 4 Y-coordinate {m}
    3.5;                     !- Vertex 4 Z-coordinate {m}

BuildingSurface:Detailed,
    NCafeteria-Piso 1 ,      !- Name
    Floor,                   !- Surface Type
    No mass,                 !- Construction Name
    NCafeteria,              !- Zone Name
    ,                        !- Space Name
    Adiabatic,               !- Outside Boundary Condition
    ,                        !- Outside Boundary Condition Object
    NoSun,                   !- Sun Exposure
    NoWind,                  !- Wind Exposure
    ,                        !- View Factor to Ground
    ,                        !- Number of Vertices
    11.95,                   !- Vertex 1 X-coordinate {m}
    4.17,                    !- Vertex 1 Y-coordinate {m}
    0,                       !- Vertex 1 Z-coordinate {m}
    11.95,                   !- Vertex 2 X-coordinate {m}
    -9.83,                   !- Vertex 2 Y-coordinate {m}
    0,                       !- Vertex 2 Z-coordinate {m}
    0,                       !- Vertex 3 X-coordinate {m}
    -9.83,                   !- Vertex 3 Y-coordinate {m}
    0,                       !- Vertex 3 Z-coordinate {m}
    0,                       !- Vertex 4 X-coordinate {m}
    0,                       !- Vertex 4 Y-coordinate {m}
    0,                       !- Vertex 4 Z-coordinate {m}
    9.25,                    !- Vertex 5 X-coordinate {m}
    0,                       !- Vertex 5 Y-coordinate {m}
    0,                       !- Vertex 5 Z-coordinate {m}
    9.25,                    !- Vertex 6 X-coordinate {m}
    4.17,                    !- Vertex 6 Y-coordinate {m}
    0;                       !- Vertex 6 Z-coordinate {m}

BuildingSurface:Detailed,
    NCafeteria-Techo 1 ,     !- Name
    Ceiling,                 !- Surface Type
    No mass,                 !- Construction Name
    NCafeteria,              !- Zone Name
    ,                        !- Space Name
    Adiabatic,               !- Outside Boundary Condition
    ,                        !- Outside Boundary Condition Object
    NoSun,                   !- Sun Exposure
    NoWind,                  !- Wind Exposure
    ,                        !- View Factor to Ground
    ,                        !- Number of Vertices
    11.95,                   !- Vertex 1 X-coordinate {m}
    -9.83,                   !- Vertex 1 Y-coordinate {m}
    3.5,                     !- Vertex 1 Z-coordinate {m}
    11.95,                   !- Vertex 2 X-coordinate {m}
    4.17,                    !- Vertex 2 Y-coordinate {m}
    3.5,                     !- Vertex 2 Z-coordinate {m}
    9.25,                    !- Vertex 3 X-coordinate {m}
    4.17,                    !- Vertex 3 Y-coordinate {m}
    3.5,                     !- Vertex 3 Z-coordinate {m}
    9.25,                    !- Vertex 4 X-coordinate {m}
    0,                       !- Vertex 4 Y-coordinate {m}
    3.5,                     !- Vertex 4 Z-coordinate {m}
    0,                       !- Vertex 5 X-coordinate {m}
    0,                       !- Vertex 5 Y-coordinate {m}
    3.5,                     !- Vertex 5 Z-coordinate {m}
    0,                       !- Vertex 6 X-coordinate {m}
    -9.83,                   !- Vertex 6 Y-coordinate {m}
    3.5;                     !- Vertex 6 Z-coordinate {m}

BuildingSurface:Detailed,
    Surface 31,              !- Name
    Wall,                    !- Surface Type
    No mass,                 !- Construction Name
    NCafeteria,              !- Zone Name
    ,                        !- Space Name
    Outdoors,                !- Outside Boundary Condition
    ,                        !- Outside Boundary Condition Object
    NoSun,                   !- Sun Exposure
    NoWind,                  !- Wind Exposure
    ,                        !- View Factor to Ground
    ,                        !- Number of Vertices
    11.95,                   !- Vertex 1 X-coordinate {m}
    4.17,                    !- Vertex 1 Y-coordinate {m}
    3.5,                     !- Vertex 1 Z-coordinate {m}
    11.95,                   !- Vertex 2 X-coordinate {m}
    4.17,                    !- Vertex 2 Y-coordinate {m}
    0,                       !- Vertex 2 Z-coordinate {m}
    9.25,                    !- Vertex 3 X-coordinate {m}
    4.17,                    !- Vertex 3 Y-coordinate {m}
    0,                       !- Vertex 3 Z-coordinate {m}
    9.25,                    !- Vertex 4 X-coordinate {m}
    4.17,                    !- Vertex 4 Y-coordinate {m}
    3.5;                     !- Vertex 4 Z-coordinate {m}


!-   ===========  ALL OBJECTS IN CLASS: FENESTRATIONSURFACE:DETAILED ===========

FenestrationSurface:Detailed,
    NCafeteria_Entrada,      !- Name
    Window,                  !- Surface Type
    ASHRAE 189.1-2009 ExtWindow ClimateZone 4-5,  !- Construction Name
    NCafeteria-MuroEvap,     !- Building Surface Name
    ,                        !- Outside Boundary Condition Object
    ,                        !- View Factor to Ground
    ,                        !- Frame and Divider Name
    ,                        !- Multiplier
    ,                        !- Number of Vertices
    11.95,                   !- Vertex 1 X-coordinate {m}
    -9.78,                   !- Vertex 1 Y-coordinate {m}
    3.45,                    !- Vertex 1 Z-coordinate {m}
    11.95,                   !- Vertex 2 X-coordinate {m}