!-Generator IDFEditor 1.51
!-Option SortedOrder

!-NOTE: All comments with '!-' are ignored by the IDFEditor and are generated automatically.
!-      Use '!' comments if they need to be retained when using the IDFEditor.


!-   ===========  ALL OBJECTS IN CLASS: VERSION ===========

Version,
    22.1;                    !- Version Identifier


!-   ===========  ALL OBJECTS IN CLASS: SIMULATIONCONTROL ===========

SimulationControl,
    No,                      !- Do Zone Sizing Calculation
    No,                      !- Do System Sizing Calculation
    No,                      !- Do Plant Sizing Calculation
    No,                      !- Run Simulation for Sizing Periods
    Yes,                     !- Run Simulation for Weather File Run Periods
    No,                      !- Do HVAC Sizing Simulation for Sizing Periods
    1;                       !- Maximum Number of HVAC Sizing Simulation Passes


!-   ===========  ALL OBJECTS IN CLASS: BUILDING ===========

Building,
    Building 1,              !- Name
    ,                        !- North Axis {deg}
    ,                        !- Terrain
    ,                        !- Loads Convergence Tolerance Value {W}
    0.0000001,               !- Temperature Convergence Tolerance Value {deltaC}
    ,                        !- Solar Distribution
    25,                      !- Maximum Number of Warmup Days
    1;                       !- Minimum Number of Warmup Days


!-   ===========  ALL OBJECTS IN CLASS: SHADOWCALCULATION ===========

ShadowCalculation,
    PolygonClipping,         !- Shading Calculation Method
    Periodic,                !- Shading Calculation Update Frequency Method
    20,                      !- Shading Calculation Update Frequency
    15000,                   !- Maximum Figures in Shadow Overlap Calculations
    SutherlandHodgman;       !- Polygon Clipping Algorithm


!-   ===========  ALL OBJECTS IN CLASS: HEATBALANCEALGORITHM ===========

HeatBalanceAlgorithm,
    ConductionTransferFunction,  !- Algorithm
    200;                     !- Surface Temperature Upper Limit {C}


!-   ===========  ALL OBJECTS IN CLASS: ZONEAIRHEATBALANCEALGORITHM ===========

ZoneAirHeatBalanceAlgorithm,
    EulerMethod;             !- Algorithm


!-   ===========  ALL OBJECTS IN CLASS: TIMESTEP ===========

Timestep,
    60;                      !- Number of Timesteps per Hour


!-   ===========  ALL OBJECTS IN CLASS: SITE:LOCATION ===========

Site:Location,
    Temixco,                 !- Name
    18.51,                   !- Latitude {deg}
    -99.14,                  !- Longitude {deg}
    -6,                      !- Time Zone {hr}
    1219;                    !- Elevation {m}


!-   ===========  ALL OBJECTS IN CLASS: RUNPERIOD ===========

RunPeriod,
    Run Period 1,            !- Name
    1,                       !- Begin Month
    1,                       !- Begin Day of Month
    2018,                    !- Begin Year
    1,                       !- End Month
    31,                      !- End Day of Month
    2018,                    !- End Year
    Monday,                  !- Day of Week for Start Day
    No,                      !- Use Weather File Holidays and Special Days
    No,                      !- Use Weather File Daylight Saving Period
    No,                      !- Apply Weekend Holiday Rule
    Yes,                     !- Use Weather File Rain Indicators
    Yes,                     !- Use Weather File Snow Indicators
    ,                        !- Treat Weather as Actual
    Hour1;                   !- First Hour Interpolation Starting Values


!-   ===========  ALL OBJECTS IN CLASS: SITE:HEIGHTVARIATION ===========

Site:HeightVariation,
    0,                       !- Wind Speed Profile Exponent
    0.000000000000001,       !- Wind Speed Profile Boundary Layer Thickness {m}
    0;                       !- Air Temperature Gradient Coefficient {K/m}


!-   ===========  ALL OBJECTS IN CLASS: MATERIAL:NOMASS ===========

Material:NoMass,
    CP02 CARPET PAD,         !- Name
    VerySmooth,              !- Roughness
    100000000000000,         !- Thermal Resistance {m2-K/W}
    0.000000000000001,       !- Thermal Absorptance
    0.000000000000001,       !- Solar Absorptance
    0;                       !- Visible Absorptance


!-   ===========  ALL OBJECTS IN CLASS: WINDOWMATERIAL:SIMPLEGLAZINGSYSTEM ===========

WindowMaterial:SimpleGlazingSystem,
    vidrio,                  !- Name
    1E-16,                   !- U-Factor {W/m2-K}
    1E-37,                   !- Solar Heat Gain Coefficient
    0.00000000000001;        !- Visible Transmittance


!-   ===========  ALL OBJECTS IN CLASS: WINDOWMATERIAL:GLAZING ===========

WindowMaterial:Glazing,
    Theoretical Glass [207], !- Name
    SpectralAverage,         !- Optical Data Type
    ,                        !- Window Glass Spectral Data Set Name
    3E-22,                   !- Thickness {m}
    0,                       !- Solar Transmittance at Normal Incidence
    0,                       !- Front Side Solar Reflectance at Normal Incidence
    0,                       !- Back Side Solar Reflectance at Normal Incidence
    0,                       !- Visible Transmittance at Normal Incidence
    0,                       !- Front Side Visible Reflectance at Normal Incidence
    0,                       !- Back Side Visible Reflectance at Normal Incidence
    0,                       !- Infrared Transmittance at Normal Incidence
    1E-26,                   !- Front Side Infrared Hemispherical Emissivity
    1E-23,                   !- Back Side Infrared Hemispherical Emissivity
    1E-27,                   !- Conductivity {W/m-K}
    1E-30,                   !- Dirt Correction Factor for Solar and Visible Transmittance
    No;                      !- Solar Diffusing


!-   ===========  ALL OBJECTS IN CLASS: CONSTRUCTION ===========

Construction,
    No mass,                 !- Name
    CP02 CARPET PAD;         !- Outside Layer

Construction,
    ASHRAE 189.1-2009 ExtWindow ClimateZone 4-5,  !- Name
    Theoretical Glass [207]; !- Outside Layer


!-   ===========  ALL OBJECTS IN CLASS: GLOBALGEOMETRYRULES ===========

GlobalGeometryRules,
    UpperLeftCorner,         !- Starting Vertex Position
    Counterclockwise,        !- Vertex Entry Direction
    Relative,                !- Coordinate System
    Relative,                !- Daylighting Reference Point Coordinate System
    Relative;                !- Rectangular Surface Coordinate System


!-   ===========  ALL OBJECTS IN CLASS: ZONE ===========

Zone,
    NCafeteria,              !- Name
    ,                        !- Direction of Relative North {deg}
    0,                       !- X Origin {m}
    9.83,                    !- Y Origin {m}
    0;                       !- Z Origin {m}


!-   ===========  ALL OBJECTS IN CLASS: BUILDINGSURFACE:DETAILED ===========

BuildingSurface:Detailed,
    NCafeteria-DivisionCafeteria,  !- Name
    Wall,                    !- Surface Type
    No mass,                 !- Construction Name
    NCafeteria,              !- Zone Name
    ,                        !- Space Name
    Adiabatic,               !- Outside Boundary Condition
    ,                        !- Outside Boundary Condition Object
    NoSun,                   !- Sun Exposure
    NoWind,                  !- Wind Exposure
    ,                        !- View Factor to Ground
    ,                        !- Number of Vertices
    9.25,                    !- Vertex 1 X-coordinate {m}
    0,                       !- Vertex 1 Y-coordinate {m}
    3.5,                     !- Vertex 1 Z-coordinate {m}
    9.25,                    !- Vertex 2 X-coordinate {m}
    0,                       !- Vertex 2 Y-coordinate {m}
    0,                       !- Vertex 2 Z-coordinate {m}
    0,                       !- Vertex 3 X-coordinate {m}
    0,                       !- Vertex 3 Y-coordinate {m}
    0,                       !- Vertex 3 Z-coordinate {m}
    0,                       !- Vertex 4 X-coordinate {m}
    0,                       !- Vertex 4 Y-coordinate {m}
    3.5;                     !- Vertex 4 Z-coordinate {m}

BuildingSurface:Detailed,
    NCafeteria-DivisionCafeteria_Oeste,  !- Name
    Wall,                    !- Surface Type
    No mass,                 !- Construction Name
    NCafeteria,              !- Zone Name
    ,                        !- Space Name
    Adiabatic,               !- Outside Boundary Condition
    ,                        !- Outside Boundary Condition Object
    NoSun,                   !- Sun Exposure
    NoWind,                  !- Wind Exposure
    ,                        !- View Factor to Ground
    ,                        !- Number of Vertices
    9.25,                    !- Vertex 1 X-coordinate {m}
    4.17,                    !- Vertex 1 Y-coordinate {m}
    3.5,                     !- Vertex 1 Z-coordinate {m}
    9.25,                    !- Vertex 2 X-coordinate {m}
    4.17,                    !- Vertex 2 Y-coordinate {m}
    0,                       !- Vertex 2 Z-coordinate {m}
    9.25,                    !- Vertex 3 X-coordinate {m}
    0,                       !- Vertex 3 Y-coordinate {m}
    0,                       !- Vertex 3 Z-coordinate {m}
    9.25,                    !- Vertex 4 X-coordinate {m}
    0,                       !- Vertex 4 Y-coordinate {m}
    3.5;                     !- Vertex 4 Z-coordinate {m}

BuildingSurface:Detailed,
    NCafeteria-MuroEvap,     !- Name
    Wall,                    !- Surface Type
    No mass,                 !- Construction Name
    NCafeteria,              !- Zone Name
    ,                        !- Space Name
    Outdoors,                !- Outside Boundary Condition
    ,                        !- Outside Boundary Condition Object
    NoSun,                   !- Sun Exposure
    NoWind,                  !- Wind Exposure
    ,                        !- View Factor to Ground
    ,                        !- Number of Vertices
    11.95,                   !- Vertex 1 X-coordinate {m}
    -9.83,                   !- Vertex 1 Y-coordinate {m}
    3.5,                     !- Vertex 1 Z-coordinate {m}
    11.95,                   !- Vertex 2 X-coordinate {m}
    -9.83,                   !- Vertex 2 Y-coordinate {m}
    0,                       !- Vertex 2 Z-coordinate {m}
    11.95,                   !- Vertex 3 X-coordinate {m}
    4.17,                    !- Vertex 3 Y-coordinate {m}
    0,                       !- Vertex 3 Z-coordinate {m}
    11.95,                   !- Vertex 4 X-coordinate {m}
    4.17,                    !- Vertex 4 Y-coordinate {m}
    3.5;                     !- Vertex 4 Z-coordinate {m}

BuildingSurface:Detailed,
    NCafeteria-MuroOesteEvap,!- Name
    Wall,                    !- Surface Type
    No mass,                 !- Construction Name
    NCafeteria,              !- Zone Name
    ,                        !- Space Name
    Outdoors,                !- Outside Boundary Condition
    ,                        !- Outside Boundary Condition Object
    NoSun,                   !- Sun Exposure
    NoWind,                  !- Wind Exposure
    ,                        !- View Factor to Ground
    ,                        !- Number of Vertices
    0,                       !- Vertex 1 X-coordinate {m}
    0,                       !- Vertex 1 Y-coordinate {m}
    3.5,                     !- Vertex 1 Z-coordinate {m}
    0,                       !- Vertex 2 X-coordinate {m}
    0,                       !- Vertex 2 Y-coordinate {m}
    0,                       !- Vertex 2 Z-coordinate {m}
    0,                       !- Vertex 3 X-coordinate {m}
    -9.83,                   !- Vertex 3 Y-coordinate {m}
    0,                       !- Vertex 3 Z-coordinate {m}
    0,                       !- Vertex 4 X-coordinate {m}
    -9.83,                   !- Vertex 4 Y-coordinate {m}
    3.5;                     !- Vertex 4 Z-coordinate {m}

BuildingSurface:Detailed,
    NCafeteria-MuroSur 1,    !- Name
    Wall,                    !- Surface Type
    No mass,                 !- Construction Name
    NCafeteria,              !- Zone Name
    ,                        !- Space Name
    Outdoors,                !- Outside Boundary Condition
    ,                        !- Outside Boundary Condition Object
    NoSun,                   !- Sun Exposure
    NoWind,                  !- Wind Exposure
    ,                        !- View Factor to Ground
    ,                        !- Number of Vertices
    0,                       !- Vertex 1 X-coordinate {m}
    -9.83,                   !- Vertex 1 Y-coordinate {m}
    3.5,                     !- Vertex 1 Z-coordinate {m}
    0,                       !- Vertex 2 X-coordinate {m}
    -9.83,                   !- Vertex 2 Y-coordinate {m}
    0,                       !- Vertex 2 Z-coordinate {m}
    11.95,                   !- Vertex 3 X-coordinate {m}
    -9.83,                   !- Vertex 3 Y-coordinate {m}
    0,                       !- Vertex 3 Z-coordinate {m}
    11.95,                   !- Vertex 4 X-coordinate {m}
    -9.83,                   !- Vertex 4 Y-coordinate {m}
    3.5;                     !- Vertex 4 Z-coordinate {m}

BuildingSurface:Detailed,
    NCafeteria-Piso 1,       !- Name
    Floor,                   !- Surface Type
    No mass,                 !- Construction Name
    NCafeteria,              !- Zone Name
    ,                        !- Space Name
    Adiabatic,               !- Outside Boundary Condition
    ,                        !- Outside Boundary Condition Object
    NoSun,                   !- Sun Exposure
    NoWind,                  !- Wind Exposure
    ,                        !- View Factor to Ground
    ,                        !- Number of Vertices
    11.95,                   !- Vertex 1 X-coordinate {m}
    4.17,                    !- Vertex 1 Y-coordinate {m}
    0,                       !- Vertex 1 Z-coordinate {m}
    11.95,                   !- Vertex 2 X-coordinate {m}
    -9.83,                   !- Vertex 2 Y-coordinate {m}
    0,                       !- Vertex 2 Z-coordinate {m}
    0,                       !- Vertex 3 X-coordinate {m}
    -9.83,                   !- Vertex 3 Y-coordinate {m}
    0,                       !- Vertex 3 Z-coordinate {m}
    0,                       !- Vertex 4 X-coordinate {m}
    0,                       !- Vertex 4 Y-coordinate {m}
    0,                       !- Vertex 4 Z-coordinate {m}
    9.25,                    !- Vertex 5 X-coordinate {m}
    0,                       !- Vertex 5 Y-coordinate {m}
    0,                       !- Vertex 5 Z-coordinate {m}
    9.25,                    !- Vertex 6 X-coordinate {m}
    4.17,                    !- Vertex 6 Y-coordinate {m}
    0;                       !- Vertex 6 Z-coordinate {m}

BuildingSurface:Detailed,
    NCafeteria-Techo 1,      !- Name
    Ceiling,                 !- Surface Type
    No mass,                 !- Construction Name
    NCafeteria,              !- Zone Name
    ,                        !- Space Name
    Adiabatic,               !- Outside Boundary Condition
    ,                        !- Outside Boundary Condition Object
    NoSun,                   !- Sun Exposure
    NoWind,                  !- Wind Exposure
    ,                        !- View Factor to Ground
    ,                        !- Number of Vertices
    11.95,                   !- Vertex 1 X-coordinate {m}
    -9.83,                   !- Vertex 1 Y-coordinate {m}
    3.5,                     !- Vertex 1 Z-coordinate {m}
    11.95,                   !- Vertex 2 X-coordinate {m}
    4.17,                    !- Vertex 2 Y-coordinate {m}
    3.5,                     !- Vertex 2 Z-coordinate {m}
    9.25,                    !- Vertex 3 X-coordinate {m}
    4.17,                    !- Vertex 3 Y-coordinate {m}
    3.5,                     !- Vertex 3 Z-coordinate {m}
    9.25,                    !- Vertex 4 X-coordinate {m}
    0,                       !- Vertex 4 Y-coordinate {m}
    3.5,                     !- Vertex 4 Z-coordinate {m}
    0,                       !- Vertex 5 X-coordinate {m}
    0,                       !- Vertex 5 Y-coordinate {m}
    3.5,                     !- Vertex 5 Z-coordinate {m}
    0,                       !- Vertex 6 X-coordinate {m}
    -9.83,                   !- Vertex 6 Y-coordinate {m}
    3.5;                     !- Vertex 6 Z-coordinate {m}

BuildingSurface:Detailed,
    Surface 31,              !- Name
    Wall,                    !- Surface Type
    No mass,                 !- Construction Name
    NCafeteria,              !- Zone Name
    ,                        !- Space Name
    Outdoors,                !- Outside Boundary Condition
    ,                        !- Outside Boundary Condition Object
    NoSun,                   !- Sun Exposure
    NoWind,                  !- Wind Exposure
    ,                        !- View Factor to Ground
    ,                        !- Number of Vertices
    11.95,                   !- Vertex 1 X-coordinate {m}
    4.17,                    !- Vertex 1 Y-coordinate {m}
    3.5,                     !- Vertex 1 Z-coordinate {m}
    11.95,                   !- Vertex 2 X-coordinate {m}
    4.17,                    !- Vertex 2 Y-coordinate {m}
    0,                       !- Vertex 2 Z-coordinate {m}
    9.25,                    !- Vertex 3 X-coordinate {m}
    4.17,                    !- Vertex 3 Y-coordinate {m}
    0,                       !- Vertex 3 Z-coordinate {m}
    9.25,                    !- Vertex 4 X-coordinate {m}
    4.17,                    !- Vertex 4 Y-coordinate {m}
    3.5;                     !- Vertex 4 Z-coordinate {m}


!-   ===========  ALL OBJECTS IN CLASS: FENESTRATIONSURFACE:DETAILED ===========

FenestrationSurface:Detailed,
    NCafeteria_Entrada,      !- Name
    Window,                  !- Surface Type
    ASHRAE 189.1-2009 ExtWindow ClimateZone 4-5,  !- Construction Name
    NCafeteria-MuroEvap,     !- Building Surface Name
    ,                        !- Outside Boundary Condition Object
    ,                        !- View Factor to Ground
    ,                        !- Frame and Divider Name
    ,                        !- Multiplier
    ,                        !- Number of Vertices
    11.95,                   !- Vertex 1 X-coordinate {m}
    -9.78,                   !- Vertex 1 Y-coordinate {m}
    3.45,                    !- Vertex 1 Z-coordinate {m}
    11.95,                   !- Vertex 2 X-coordinate {m}
    -9.78,                   !- Vertex 2 Y-coordinate {m}
    0.0500000000000002,      !- Vertex 2 Z-coordinate {m}
    11.95,                   !- Vertex 3 X-coordinate {m}
    4.12,                    !- Vertex 3 Y-coordinate {m}
    0.0500000000000001,      !- Vertex 3 Z-coordinate {m}
    11.95,                   !- Vertex 4 X-coordinate {m}
    4.12,                    !- Vertex 4 Y-coordinate {m}
    3.45;                    !- Vertex 4 Z-coordinate {m}

FenestrationSurface:Detailed,
    NCafeteria_VentanaOeste, !- Name
    Window,                  !- Surface Type
    ASHRAE 189.1-2009 ExtWindow ClimateZone 4-5,  !- Construction Name
    NCafeteria-MuroOesteEvap,!- Building Surface Name
    ,                        !- Outside Boundary Condition Object
    ,                        !- View Factor to Ground
    ,                        !- Frame and Divider Name
    ,                        !- Multiplier
    ,                        !- Number of Vertices
    0,                       !- Vertex 1 X-coordinate {m}
    -0.0500000000000002,     !- Vertex 1 Y-coordinate {m}
    3.45,                    !- Vertex 1 Z-coordinate {m}
    0,                       !- Vertex 2 X-coordinate {m}
    -0.0500000000000002,     !- Vertex 2 Y-coordinate {m}
    0.0500000000000002,      !- Vertex 2 Z-coordinate {m}
    0,                       !- Vertex 3 X-coordinate {m}
    -9.78,                   !- Vertex 3 Y-coordinate {m}
    0.0500000000000001,      !- Vertex 3 Z-coordinate {m}
    0,                       !- Vertex 4 X-coordinate {m}
    -9.78,                   !- Vertex 4 Y-coordinate {m}
    3.45;                    !- Vertex 4 Z-coordinate {m}

FenestrationSurface:Detailed,
    Sub Surface 1,           !- Name
    Window,                  !- Surface Type
    ASHRAE 189.1-2009 ExtWindow ClimateZone 4-5,  !- Construction Name
    NCafeteria-MuroSur 1,    !- Building Surface Name
    ,                        !- Outside Boundary Condition Object
    ,                        !- View Factor to Ground
    ,                        !- Frame and Divider Name
    ,                        !- Multiplier
    ,                        !- Number of Vertices
    9.3,                     !- Vertex 1 X-coordinate {m}
    -9.83,                   !- Vertex 1 Y-coordinate {m}
    3.45,                    !- Vertex 1 Z-coordinate {m}
    9.3,                     !- Vertex 2 X-coordinate {m}
    -9.83,                   !- Vertex 2 Y-coordinate {m}
    0.0500000000000002,      !- Vertex 2 Z-coordinate {m}
    11.9,                    !- Vertex 3 X-coordinate {m}
    -9.83,                   !- Vertex 3 Y-coordinate {m}
    0.0500000000000001,      !- Vertex 3 Z-coordinate {m}
    11.9,                    !- Vertex 4 X-coordinate {m}
    -9.83,                   !- Vertex 4 Y-coordinate {m}
    3.45;                    !- Vertex 4 Z-coordinate {m}

FenestrationSurface:Detailed,
    Sub Surface 2,           !- Name
    Window,                  !- Surface Type
    ASHRAE 189.1-2009 ExtWindow ClimateZone 4-5,  !- Construction Name
    Surface 31,              !- Building Surface Name
    ,                        !- Outside Boundary Condition Object
    ,                        !- View Factor to Ground
    ,                        !- Frame and Divider Name
    ,                        !- Multiplier
    ,                        !- Number of Vertices
    11.9,                    !- Vertex 1 X-coordinate {m}
    4.17,                    !- Vertex 1 Y-coordinate {m}
    3.45,                    !- Vertex 1 Z-coordinate {m}
    11.9,                    !- Vertex 2 X-coordinate {m}
    4.17,                    !- Vertex 2 Y-coordinate {m}
    0.0500000000000002,      !- Vertex 2 Z-coordinate {m}
    9.3,                     !- Vertex 3 X-coordinate {m}
    4.17,                    !- Vertex 3 Y-coordinate {m}
    0.0500000000000001,      !- Vertex 3 Z-coordinate {m}
    9.3,                     !- Vertex 4 X-coordinate {m}
    4.17,                    !- Vertex 4 Y-coordinate {m}
    3.45;                    !- Vertex 4 Z-coordinate {m}


!-   ===========  ALL OBJECTS IN CLASS: WINDOWPROPERTY:FRAMEANDDIVIDER ===========

WindowProperty:FrameAndDivider,
    Window Property Frame And Divider 1,  !- Name
    0.05081016,              !- Frame Width {m}
    0.05081016,              !- Frame Outside Projection {m}
    0.05081016,              !- Frame Inside Projection {m}
    ,                        !- Frame Conductance {W/m2-K}
    1,                       !- Ratio of Frame-Edge Glass Conductance to Center-Of-Glass Conductance
    0.7,                     !- Frame Solar Absorptance
    0.7,                     !- Frame Visible Absorptance
    0.9,                     !- Frame Thermal Hemispherical Emissivity
    DividedLite,             !- Divider Type
    0,                       !- Divider Width {m}
    0,                       !- Number of Horizontal Dividers
    0,                       !- Number of Vertical Dividers
    0,                       !- Divider Outside Projection {m}
    0,                       !- Divider Inside Projection {m}
    0,                       !- Divider Conductance {W/m2-K}
    1,                       !- Ratio of Divider-Edge Glass Conductance to Center-Of-Glass Conductance
    0,                       !- Divider Solar Absorptance
    0,                       !- Divider Visible Absorptance
    0.9,                     !- Divider Thermal Hemispherical Emissivity
    0,                       !- Outside Reveal Solar Absorptance
    0,                       !- Inside Sill Depth {m}
    0,                       !- Inside Sill Solar Absorptance
    0,                       !- Inside Reveal Depth {m}
    0,                       !- Inside Reveal Solar Absorptance
    CurtainWall;             !- NFRC Product Type for Assembly Calculations


!-   ===========  ALL OBJECTS IN CLASS: SURFACEPROPERTY:CONVECTIONCOEFFICIENTS:MULTIPLESURFACE ===========

SurfaceProperty:ConvectionCoefficients:MultipleSurface,
    AllInteriorSurfaces,     !- Surface Type
    Inside,                  !- Convection Coefficient 1 Location
    Value,                   !- Convection Coefficient 1 Type
    0.1,                     !- Convection Coefficient 1 {W/m2-K}
    ,                        !- Convection Coefficient 1 Schedule Name
    ,                        !- Convection Coefficient 1 User Curve Name
    ,                        !- Convection Coefficient 2 Location
    ,                        !- Convection Coefficient 2 Type
    0.1;                     !- Convection Coefficient 2 {W/m2-K}


!-   ===========  ALL OBJECTS IN CLASS: AIRFLOWNETWORK:SIMULATIONCONTROL ===========

AirflowNetwork:SimulationControl,
    ControlAFN,              !- Name
    MultizoneWithoutDistribution,  !- AirflowNetwork Control
    SurfaceAverageCalculation,  !- Wind Pressure Coefficient Type
    OpeningHeight,           !- Height Selection for Local Wind Pressure Calculation
    LowRise,                 !- Building Type
    30000,                   !- Maximum Number of Iterations {dimensionless}
    ZeroNodePressures,       !- Initialization Type
    0.0001,                  !- Relative Airflow Convergence Tolerance {dimensionless}
    0.000001,                !- Absolute Airflow Convergence Tolerance {kg/s}
    -.5,                     !- Convergence Acceleration Limit {dimensionless}
    0,                       !- Azimuth Angle of Long Axis of Building {deg}
    1,                       !- Ratio of Building Width Along Short Axis to Width Along Long Axis
    No,                      !- Height Dependence of External Node Temperature
    SkylineLU,               !- Solver
    No;                      !- Allow Unsupported Zone Equipment


!-   ===========  ALL OBJECTS IN CLASS: AIRFLOWNETWORK:MULTIZONE:ZONE ===========

AirflowNetwork:MultiZone:Zone,
    NCafeteria,              !- Zone Name
    Constant,                !- Ventilation Control Mode
    ,                        !- Ventilation Control Zone Temperature Setpoint Schedule Name
    1,                       !- Minimum Venting Open Factor {dimensionless}
    ,                        !- Indoor and Outdoor Temperature Difference Lower Limit For Maximum Venting Open Factor {deltaC}
    100,                     !- Indoor and Outdoor Temperature Difference Upper Limit for Minimum Venting Open Factor {deltaC}
    ,                        !- Indoor and Outdoor Enthalpy Difference Lower Limit For Maximum Venting Open Factor {deltaJ/kg}
    300000,                  !- Indoor and Outdoor Enthalpy Difference Upper Limit for Minimum Venting Open Factor {deltaJ/kg}
    ,                        !- Venting Availability Schedule Name
    Standard,                !- Single Sided Wind Pressure Coefficient Algorithm
    10;                      !- Facade Width {m}


!-   ===========  ALL OBJECTS IN CLASS: AIRFLOWNETWORK:MULTIZONE:SURFACE ===========

AirflowNetwork:MultiZone:Surface,
    Sub Surface 1,           !- Surface Name
    DetOpen,                 !- Leakage Component Name
    ,                        !- External Node Name
    1,                       !- Window/Door Opening Factor, or Crack Factor {dimensionless}
    Constant,                !- Ventilation Control Mode
    ,                        !- Ventilation Control Zone Temperature Setpoint Schedule Name
    1,                       !- Minimum Venting Open Factor {dimensionless}
    ,                        !- Indoor and Outdoor Temperature Difference Lower Limit For Maximum Venting Open Factor {deltaC}
    100,                     !- Indoor and Outdoor Temperature Difference Upper Limit for Minimum Venting Open Factor {deltaC}
    ,                        !- Indoor and Outdoor Enthalpy Difference Lower Limit For Maximum Venting Open Factor {deltaJ/kg}
    300000,                  !- Indoor and Outdoor Enthalpy Difference Upper Limit for Minimum Venting Open Factor {deltaJ/kg}
    ,                        !- Venting Availability Schedule Name
    ,                        !- Occupant Ventilation Control Name
    PolygonHeight,           !- Equivalent Rectangle Method
    1;                       !- Equivalent Rectangle Aspect Ratio {dimensionless}

AirflowNetwork:MultiZone:Surface,
    NCafeteria_Entrada,      !- Surface Name
    DetOpen,                 !- Leakage Component Name
    ,                        !- External Node Name
    1,                       !- Window/Door Opening Factor, or Crack Factor {dimensionless}
    Constant,                !- Ventilation Control Mode
    ,                        !- Ventilation Control Zone Temperature Setpoint Schedule Name
    1,                       !- Minimum Venting Open Factor {dimensionless}
    ,                        !- Indoor and Outdoor Temperature Difference Lower Limit For Maximum Venting Open Factor {deltaC}
    100,                     !- Indoor and Outdoor Temperature Difference Upper Limit for Minimum Venting Open Factor {deltaC}
    ,                        !- Indoor and Outdoor Enthalpy Difference Lower Limit For Maximum Venting Open Factor {deltaJ/kg}
    300000,                  !- Indoor and Outdoor Enthalpy Difference Upper Limit for Minimum Venting Open Factor {deltaJ/kg}
    ,                        !- Venting Availability Schedule Name
    ,                        !- Occupant Ventilation Control Name
    PolygonHeight,           !- Equivalent Rectangle Method
    1;                       !- Equivalent Rectangle Aspect Ratio {dimensionless}
